Circuit: EXAMPLE PSpice

Direct Newton iteration for .op point succeeded.

Date: Thu Oct 19 01:17:35 2017
Total elapsed time: 0.066 seconds.

tnom = 27
temp = 27
method = trap
totiter = 3
traniter = 0
tranpoints = 0
accept = 0
rejected = 0
matrix size = 20
fillins = 34
solver = Normal
Matrix Compiler1: 2.99 KB object code size
Matrix Compiler2: 2.25 KB object code size
